case108_v1.m
function mpc = case108_v1
%CASE108BW  Power flow data for 108 bus distribution system
%   Please see CASEFORMAT for details on the case file format.
%
%   Data from ...
%   Liu J, Zhou Y, Li Y, et al. 
%   Modelling and analysis of radial distribution network... 
%   with high penetration of renewable energy considering the time series characteristics[J]. 
%   IET Generation, Transmission \& Distribution, 2020, 14(14): 2800-2809.

%% MATPOWER Case Format : Version 2
mpc.version = '2';

%%-----  Power Flow Data  -----%%
%% system MVA base
mpc.baseMVA = 10;

%% bus data
%	bus_i	type	Pd	Qd	Gs	Bs	area	Vm	Va	baseKV	zone	Vmax	Vmin
mpc.bus = [ %% (Pd and Qd are specified in kW & kVAr here, converted to MW & MVAr below)
    1	3	0	0	0	0	1	1	0	10	1	1	1;
    2	1	80	32	0	0	1	1	0	10	1	1.1	0.9;
    3	1	25	10	0	0	1	1	0	10	1	1.1	0.9;
    4	1	50	20	0	0	1	1	0	10	1	1.1	0.9;
    5	1	10	4	0	0	1	1	0	10	1	1.1	0.9;
    6	1	100	40	0	0	1	1	0	10	1	1.1	0.9;
    7	1	100	40	0	0	1	1	0	10	1	1.1	0.9;
    8	1	15	6	0	0	1	1	0	10	1	1.1	0.9;
    9	1	62.5	25	0	0	1	1	0	10	1	1.1	0.9;
    10	1	50	20	0	0	1	1	0	10	1	1.1	0.9;
    11	1	50	15	0	0	1	1	0	10	1	1.1	0.9;
    12	1	80	24	0	0	1	1	0	10	1	1.1	0.9;
    13	1	40	12	0	0	1	1	0	10	1	1.1	0.9;
    14	1	80	24	0	0	1	1	0	10	1	1.1	0.9;
    15	1	40	12	0	0	1	1	0	10	1	1.1	0.9;
    16	1	100	30	0	0	1	1	0	10	1	1.1	0.9;
    17	1	100	30	0	0	1	1	0	10	1	1.1	0.9;
    18	1	15	4.5	0	0	1	1	0	10	1	1.1	0.9;
    19	1	25	7.5	0	0	1	1	0	10	1	1.1	0.9;
    20	1	40	12	0	0	1	1	0	10	1	1.1	0.9;
    21	1	10	3	0	0	1	1	0	10	1	1.1	0.9;
    22	1	315	94.5	0	0	1	1	0	10	1	1.1	0.9;
    23	1	100	30	0	0	1	1	0	10	1	1.1	0.9;
    24	1	100	30	0	0	1	1	0	10	1	1.1	0.9;
    25	1	15	4.5	0	0	1	1	0	10	1	1.1	0.9;
    26	1	25	7.5	0	0	1	1	0	10	1	1.1	0.9;
    27	1	25	7.5	0	0	1	1	0	10	1	1.1	0.9;
    28	1	50	15	0	0	1	1	0	10	1	1.1	0.9
    29	1	157.5	47.25	0	0	1	1	0	10	1	1.1	0.9;
    30	1	25	7.5	0	0	1	1	0	10	1	1.1	0.9;
    31	1	50	15	0	0	1	1	0	10	1	1.1	0.9;
    32	1	100	30	0	0	1	1	0	10	1	1.1	0.9;
    33	1	25	7.5	0	0	1	1	0	10	1	1.1	0.9;
    34	1	40	12	0	0	1	1	0	10	1	1.1	0.9;
    35	1	100	30	0	0	1	1	0	10	1	1.1	0.9;
    36	1	100	30	0	0	1	1	0	10	1	1.1	0.9;
    37	1	80	24	0	0	1	1	0	10	1	1.1	0.9;
    38	1	50	15	0	0	1	1	0	10	1	1.1	0.9;
    39	1	50	30	0	0	1	1	0	10	1	1.1	0.9;
    40	1	50	30	0	0	1	1	0	10	1	1.1	0.9;
    41	1	50	30	0	0	1	1	0	10	1	1.1	0.9;
    42	1	100	60	0	0	1	1	0	10	1	1.1	0.9;
    43	1	25	15	0	0	1	1	0	10	1	1.1	0.9;
    44	1	100	60	0	0	1	1	0	10	1	1.1	0.9;
    45	1	25	15	0	0	1	1	0	10	1	1.1	0.9;
    46	1	50	30	0	0	1	1	0	10	1	1.1	0.9;
    47	1	10	6	0	0	1	1	0	10	1	1.1	0.9;
    48	1	40	24	0	0	1	1	0	10	1	1.1	0.9;
    49	1	50	30	0	0	1	1	0	10	1	1.1	0.9;
    50	1	60	46.2	0	0	1	1	0	10	1	1.1	0.9;
    51	1	12	7.2	0	0	1	1	0	10	1	1.1	0.9;
    52	1	240	144	0	0	1	1	0	10	1	1.1	0.9;
    53	1	480	288	0	0	1	1	0	10	1	1.1	0.9;
    54	1	18	10.8	0	0	1	1	0	10	1	1.1	0.9;
    55	1	96	57.6	0	0	1	1	0	10	1	1.1	0.9;
    56	1	30	18	0	0	1	1	0	10	1	1.1	0.9;
    57	1	60	36	0	0	1	1	0	10	1	1.1	0.9;
    58	1	12	7.2	0	0	1	1	0	10	1	1.1	0.9;
    59	1	120	72	0	0	1	1	0	10	1	1.1	0.9;
    60	1	120	72	0	0	1	1	0	10	1	1.1	0.9;
    61	1	18	10.8	0	0	1	1	0	10	1	1.1	0.9;
    62	1	75	45	0	0	1	1	0	10	1	1.1	0.9;
    63	1	60	36	0	0	1	1	0	10	1	1.1	0.9;
    64	1	48	28.8	0	0	1	1	0	10	1	1.1	0.9;
    65	1	30	18	0	0	1	1	0	10	1	1.1	0.9;
    66	1	120	72	0	0	1	1	0	10	1	1.1	0.9;
    67	1	120	72	0	0	1	1	0	10	1	1.1	0.9;
    68	1	18	10.8	0	0	1	1	0	10	1	1.1	0.9;
    69	1	48	28.8	0	0	1	1	0	10	1	1.1	0.9;
    70	1	60	36	0	0	1	1	0	10	1	1.1	0.9;
    71	1	60	36	0	0	1	1	0	10	1	1.1	0.9;
    72	1	60	36	0	0	1	1	0	10	1	1.1	0.9;
    73	1	60	36	0	0	1	1	0	10	1	1.1	0.9;
    74	1	96	57.6	0	0	1	1	0	10	1	1.1	0.9;
    75	1	48	28.8	0	0	1	1	0	10	1	1.1	0.9;
    76	1	96	57.6	0	0	1	1	0	10	1	1.1	0.9;
    77	1	48	28.8	0	0	1	1	0	10	1	1.1	0.9;
    78	1	120	72	0	0	1	1	0	10	1	1.1	0.9;
    79	1	120	72	0	0	1	1	0	10	1	1.1	0.9;
    80	1	18	10.8	0	0	1	1	0	10	1	1.1	0.9;
    81	1	30	18	0	0	1	1	0	10	1	1.1	0.9;
    82	1	48	28.8	0	0	1	1	0	10	1	1.1	0.9;
    83	1	12	9.24	0	0	1	1	0	10	1	1.1	0.9;
    84	1	378	291.06	0	0	1	1	0	10	1	1.1	0.9;
    85	1	120	92.4	0	0	1	1	0	10	1	1.1	0.9;
    86	1	120	92.4	0	0	1	1	0	10	1	1.1	0.9;
    87	1	18	13.86	0	0	1	1	0	10	1	1.1	0.9;
    88	1	30	23.1	0	0	1	1	0	10	1	1.1	0.9;
    89	1	30	23.1	0	0	1	1	0	10	1	1.1	0.9;
    90	1	60	46.2	0	0	1	1	0	10	1	1.1	0.9;
    91	1	189	145.53	0	0	1	1	0	10	1	1.1	0.9;
    92	1	30	23.1	0	0	1	1	0	10	1	1.1	0.9;
    93	1	60	46.2	0	0	1	1	0	10	1	1.1	0.9;
    94	1	120	92.4	0	0	1	1	0	10	1	1.1	0.9;
    95	1	30	23.1	0	0	1	1	0	10	1	1.1	0.9;
    96	1	48	36.96	0	0	1	1	0	10	1	1.1	0.9;
    97	1	120	92.4	0	0	1	1	0	10	1	1.1	0.9;
    98	1	120	92.4	0	0	1	1	0	10	1	1.1	0.9;
    99	1	96	73.92	0	0	1	1	0	10	1	1.1	0.9;
    100	1	48	19.2	0	0	1	1	0	10	1	1.1	0.9;
    101	1	30	12	0	0	1	1	0	10	1	1.1	0.9;
    102	1	120	48	0	0	1	1	0	10	1	1.1	0.9;
    103	1	120	48	0	0	1	1	0	10	1	1.1	0.9;
    104	1	18	7.2	0	0	1	1	0	10	1	1.1	0.9;
    105	1	48	19.2	0	0	1	1	0	10	1	1.1	0.9;
    106	1	60	24	0	0	1	1	0	10	1	1.1	0.9;
    107	1	60	18	0	0	1	1	0	10	1	1.1	0.9;
    108	1	60	18	0	0	1	1	0	10	1	1.1	0.9;
];

mpc.bus(:,3:4) = mpc.bus(:,3:4) * 0.6;  %% 

%% generator data
%	bus	Pg	Qg	Qmax	Qmin	Vg	mBase	status	Pmax	Pmin	Pc1	Pc2	Qc1min	Qc1max	Qc2min	Qc2max	ramp_agc	ramp_10	ramp_30	ramp_q	apf
mpc.gen = [
    1	0	0	10	-10	1	100	1	10	0	0	0	0	0	0	0	0	0	0	0	0;
    2	0	0	0.028	-0.028	1	100	0	0.028	0	0	0	0	0	0	0	0	0	0	0	0;
    18	0	0	0.028	-0.028	1	100	0	0.028	0	0	0	0	0	0	0	0	0	0	0	0;
    20	0	0	0.06	-0.06	1	100	0	0.06	0	0	0	0	0	0	0	0	0	0	0	0;
    21	0	0	0.035	-0.035	1	100	0	0.035	0	0	0	0	0	0	0	0	0	0	0	0;
    22	0	0	0.057	-0.057	1	100	0	0.057	0	0	0	0	0	0	0	0	0	0	0	0;
    25	0	0	0.14	-0.14	1	100	0	0.14	0	0	0	0	0	0	0	0	0	0	0	0;
    28	0	0	0.028	-0.028	1	100	0	0.028	0	0	0	0	0	0	0	0	0	0	0	0;
    31	0	0	0.081	-0.081	1	100	0	0.081	0	0	0	0	0	0	0	0	0	0	0	0;
    32	0	0	0.01	-0.01	1	100	0	0.01	0	0	0	0	0	0	0	0	0	0	0	0;
    35	0	0	0.01	-0.01	1	100	0	0.01	0	0	0	0	0	0	0	0	0	0	0	0;
    36	0	0	0.028	-0.028	1	100	0	0.028	0	0	0	0	0	0	0	0	0	0	0	0;
    40	0	0	0.088	-0.088	1	100	0	0.088	0	0	0	0	0	0	0	0	0	0	0	0;
    44	0	0	0.14	-0.14	1	100	0	0.14	0	0	0	0	0	0	0	0	0	0	0	0;
    47	0	0	0.057	-0.057	1	100	0	0.057	0	0	0	0	0	0	0	0	0	0	0	0;
    49	0	0	0.035	-0.035	1	100	0	0.035	0	0	0	0	0	0	0	0	0	0	0	0;
    72	0	0	0.285	-0.285	1	100	0	0.285	0	0	0	0	0	0	0	0	0	0	0	0;
    74	0	0	0.64	-0.64	1	100	0	0.64	0	0	0	0	0	0	0	0	0	0	0	0;
    75	0	0	0.857	-0.857	1	100	0	0.857	0	0	0	0	0	0	0	0	0	0	0	0;
    79	0	0	0.571	-0.571	1	100	0	0.571	0	0	0	0	0	0	0	0	0	0	0	0;
    92	0	0	0.857	-0.857	1	100	0	0.857	0	0	0	0	0	0	0	0	0	0	0	0 ; 
    93	0	0	0.571	-0.571	1	100	0	0.571	0	0	0	0	0	0	0	0	0	0	0	0;
    99	0	0	0.945	-0.945	1	100	0	0.945	0	0	0	0	0	0	0	0	0	0	0	0;
    101	0	0	0.677	-0.677	1	100	0	0.677	0	0	0	0	0	0	0	0	0	0	0	0;
    102	0	0	1.194	-1.194	1	100	0	1.194	0	0	0	0	0	0	0	0	0	0	0	0;
    108	0	0	1.415	-1.415	1	100	0	1.415	0	0	0	0	0	0	0	0	0	0	0	0;
];
%% branch data
%	fbus	tbus	r	x	b	rateA	rateB	rateC	ratio	angle	status	angmin	angmax
mpc.branch = [   %% (r and x specified in ohms here, converted to p.u. below) ;% length (km)    type (1 or 2)
    1	2	0.027209	0.02561195	0	0	0	0	0	0	1	-360	360;%	0.05915	1
    2	3	0.027209	0.02561195	0	0	0	0	0	0	1	-360	360;%	0.05915	1
    3	4	0.418048	0.3935104	0	0	0	0	0	0	1	-360	360;%	0.9088	1
    4	5	0.2446142	0.23025641	0	0	0	0	0	0	1	-360	360;%	0.53177	1
    5	6	0.3226716	0.30373218	0	0	0	0	0	0	1	-360	360;%	0.70146	1
    6	7	0.0477848	0.04498004	0	0	0	0	0	0	1	-360	360;%	0.10388	1
    7	8	0.1157176	0.10892548	0	0	0	0	0	0	1	-360	360;%	0.25156	1
    8	9	0.495857	0.46675235	0	0	0	0	0	0	1	-360	360;%	1.07795	1
    9	10	0.3772046	0.35506433	0	0	0	0	0	0	1	-360	360;%	0.82001	1
    10	11	0.441876	0.4159398	0	0	0	0	0	0	1	-360	360;%	0.9606	1
    11	12	0.1363486	0.12834553	0	0	0	0	0	0	1	-360	360;%	0.29641	1
    12	13	0.46299	0.4358145	0	0	0	0	0	0	1	-360	360;%	1.0065	1
    13	14	0.7305628	0.68768194	0	0	0	0	0	0	1	-360	360;%	1.58818	1
    14	15	0.8348586	0.78585603	0	0	0	0	0	0	1	-360	360;%	1.81491	1
    15	16	0.32821	0.3089455	0	0	0	0	0	0	1	-360	360;%	0.7135	1
    16	17	0.2457642	0.23133891	0	0	0	0	0	0	1	-360	360;%	0.53427	1
    17	18	0.0277932	0.02616186	0	0	0	0	0	0	1	-360	360;%	0.06042	1
    18	19	0.0520858	0.04902859	0	0	0	0	0	0	1	-360	360;%	0.11323	1
    19	20	0.4592594	0.43230287	0	0	0	0	0	0	1	-360	360;%	0.99839	1
    20	21	1.497898	1.4099779	0	0	0	0	0	0	1	-360	360;%	3.2563	1
    21	22	0.0609362	0.05735951	0	0	0	0	0	0	1	-360	360;%	0.13247	1
    4	23	0.2059742	0.19388441	0	0	0	0	0	0	1	-360	360;%	0.44777	1
    23	24	0.1285792	0.12103216	0	0	0	0	0	0	1	-360	360;%	0.27952	1
    24	25	0.0750858	0.07067859	0	0	0	0	0	0	1	-360	360;%	0.16323	1
    23	26	0.0385296	0.03626808	0	0	0	0	0	0	1	-360	360;%	0.08376	1
    9	27	0.025277	0.02379335	0	0	0	0	0	0	1	-360	360;%	0.05495	1
    27	28	0.1698734	0.15990257	0	0	0	0	0	0	1	-360	360;%	0.36929	1
    28	29	0.0688712	0.06482876	0	0	0	0	0	0	1	-360	360;%	0.14972	1
    29	30	0.0549378	0.05171319	0	0	0	0	0	0	1	-360	360;%	0.11943	1
    30	31	0.1850028	0.17414394	0	0	0	0	0	0	1	-360	360;%	0.40218	1
    29	32	0.0929798	0.08752229	0	0	0	0	0	0	1	-360	360;%	0.20213	1
    30	33	0.2809036	0.26441578	0	0	0	0	0	0	1	-360	360;%	0.61066	1
    10	34	0.0685446	0.06452133	0	0	0	0	0	0	1	-360	360;%	0.14901	1
    34	35	0.4152374	0.39086477	0	0	0	0	0	0	1	-360	360;%	0.90269	1
    35	36	0.1646708	0.15500534	0	0	0	0	0	0	1	-360	360;%	0.35798	1
    15	37	0.8255298	0.77707479	0	0	0	0	0	0	1	-360	360;%	1.79463	1
    37	38	0.0792948	0.07464054	0	0	0	0	0	0	1	-360	360;%	0.17238	1
    38	39	0.4307118	0.40543089	0	0	0	0	0	0	1	-360	360;%	0.93633	1
    39	40	0.286718	0.2698889	0	0	0	0	0	0	1	-360	360;%	0.6233	1
    37	41	0.3995468	0.37609514	0	0	0	0	0	0	1	-360	360;%	0.86858	1
    38	42	0.3372076	0.31741498	0	0	0	0	0	0	1	-360	360;%	0.73306	1
    39	43	0.0706928	0.06654344	0	0	0	0	0	0	1	-360	360;%	0.15368	1
    43	44	0.040204	0.0378442	0	0	0	0	0	0	1	-360	360;%	0.0874	1
    19	45	0.023138	0.0217799	0	0	0	0	0	0	1	-360	360;%	0.0503	1
    45	46	0.0596712	0.05616876	0	0	0	0	0	0	1	-360	360;%	0.12972	1
    46	47	0.0503884	0.04743082	0	0	0	0	0	0	1	-360	360;%	0.10954	1
    47	48	0.0331338	0.03118899	0	0	0	0	0	0	1	-360	360;%	0.07203	1
    48	49	0.8446566	0.79507893	0	0	0	0	0	0	1	-360	360;%	1.83621	1
    50	51	0.4780596	0.44999958	0	0	0	0	0	0	1	-360	360;%	1.03926	1
    51	52	0.2115218	0.19910639	0	0	0	0	0	0	1	-360	360;%	0.45983	1
    52	53	0.061594	0.0579787	0	0	0	0	0	0	1	-360	360;%	0.1339	1
    53	54	0.1167618	0.10990839	0	0	0	0	0	0	1	-360	360;%	0.25383	1
    54	71	0.7851648	0.73907904	0	0	0	0	0	0	1	-360	360;%	1.70688	1
    71	72	0.1010482	0.09511711	0	0	0	0	0	0	1	-360	360;%	0.21967	1
    71	73	0.9290804	0.87454742	0	0	0	0	0	0	1	-360	360;%	2.01974	1
    54	55	0.3911334	0.36817557	0	0	0	0	0	0	1	-360	360;%	0.85029	1
    55	56	0.0631856	0.05947688	0	0	0	0	0	0	1	-360	360;%	0.13736	1
    56	57	0.4782942	0.45022041	0	0	0	0	0	0	1	-360	360;%	1.03977	1
    59	60	0.0305992	0.02880316	0	0	0	0	0	0	1	-360	360;%	0.06652	1
    60	61	0.0374946	0.03529383	0	0	0	0	0	0	1	-360	360;%	0.08151	1
    61	75	0.0962688	0.09061824	0	0	0	0	0	0	1	-360	360;%	0.20928	1
    75	76	0.742325	0.69875375	0	0	0	0	0	0	1	-360	360;%	1.61375	1
    75	77	0.0787612	0.07413826	0	0	0	0	0	0	1	-360	360;%	0.17122	1
    77	78	0.0419336	0.03947228	0	0	0	0	0	0	1	-360	360;%	0.09116	1
    61	62	0.0343942	0.03237541	0	0	0	0	0	0	1	-360	360;%	0.07477	1
    62	79	0.3544714	0.33366547	0	0	0	0	0	0	1	-360	360;%	0.77059	1
    62	63	0.1339014	0.12604197	0	0	0	0	0	0	1	-360	360;%	0.29109	1
    63	64	0.1081874	0.10183727	0	0	0	0	0	0	1	-360	360;%	0.23519	1
    64	65	0.0614054	0.05780117	0	0	0	0	0	0	1	-360	360;%	0.13349	1
    65	80	0.8723532	0.82114986	0	0	0	0	0	0	1	-360	360;%	1.89642	1
    80	81	0.099935	0.09406925	0	0	0	0	0	0	1	-360	360;%	0.21725	1
    82	83	0.0050985	0.005871	0	0	0	0	0	0	1	-360	360;%	0.01545	2
    83	99	0.0298716	0.0343976	0	0	0	0	0	0	1	-360	360;%	0.09052	2
    99	100	0.3897036	0.4487496	0	0	0	0	0	0	1	-360	360;%	1.18092	2
    100	101	0.1359402	0.1565372	0	0	0	0	0	0	1	-360	360;%	0.41194	2
    83	84	0.0178431	0.0205466	0	0	0	0	0	0	1	-360	360;%	0.05407	2
    84	85	0.0356862	0.0410932	0	0	0	0	0	0	1	-360	360;%	0.10814	2
    85	86	0.053526	0.061636	0	0	0	0	0	0	1	-360	360;%	0.1622	2
    86	87	0.0356862	0.0410932	0	0	0	0	0	0	1	-360	360;%	0.10814	2
    87	102	0.0356862	0.0410932	0	0	0	0	0	0	1	-360	360;%	0.10814	2
    102	103	0.1070553	0.1232758	0	0	0	0	0	0	1	-360	360;%	0.32441	2
    103	104	0.2854764	0.3287304	0	0	0	0	0	0	1	-360	360;%	0.86508	2
    87	88	0.0713691	0.0821826	0	0	0	0	0	0	1	-360	360;%	0.21627	2
    88	89	0.0178431	0.0205466	0	0	0	0	0	0	1	-360	360;%	0.05407	2
    89	90	0.3363327	0.3872922	0	0	0	0	0	0	1	-360	360;%	1.01919	2
    90	91	0.0435534	0.0501524	0	0	0	0	0	0	1	-360	360;%	0.13198	2
    91	92	0.0782628	0.0901208	0	0	0	0	0	0	1	-360	360;%	0.23716	2
    92	93	0.0059928	0.0069008	0	0	0	0	0	0	1	-360	360;%	0.01816	2
    93	105	0.0069696	0.0080256	0	0	0	0	0	0	1	-360	360;%	0.02112	2
    105	106	0.0655215	0.075449	0	0	0	0	0	0	1	-360	360;%	0.19855	2
    105	107	0.0941523	0.1084178	0	0	0	0	0	0	1	-360	360;%	0.28531	2
    93	94	0.0008547	0.0009842	0	0	0	0	0	0	1	-360	360;%	0.00259	2
    94	95	0.001683	0.001938	0	0	0	0	0	0	1	-360	360;%	0.0051	2
    95	96	0.0974325	0.112195	0	0	0	0	0	0	1	-360	360;%	0.29525	2
    96	97	0.1471899	0.1694914	0	0	0	0	0	0	1	-360	360;%	0.44603	2
    97	108	0.3798564	0.4374104	0	0	0	0	0	0	1	-360	360;%	1.15108	2
    97	98	0.4796682	0.5523452	0	0	0	0	0	0	1	-360	360;%	1.45354	2
    1	50	0.027209	0.02561195	0	0	0	0	0	0	1	-360	360;%	0.05915	1
    1	82	0.0195195	0.022477	0	0	0	0	0	0	1	-360	360;%	0.05915	2
    58	59	0.66516	0.626118	0	0	0	0	0	0	1	-360	360;%	1.446	1
    57	58	0.8008324	0.75382702	0	0	0	0	0	0	1	-360	360;%	1.74094	1
    59	74	0.4843064	0.45587972	0	0	0	0	0	0	1	-360	360;%	1.05284	1
    65	66	0.529639819	0.498552265	0	0	0	0	0	0	1	-360	360;%	1.151390912	1
    66	67	0.361968866	0.340722867	0	0	0	0	0	0	1	-360	360;%	0.786888839	1
    67	98	0.019712847	0.018555788	0	0	0	0	0	0	0	-360	360;%	0.042854014	1
    
    52	68	0.66516	0.626118	0	0	0	0	0	0	1	-360	360;%	1.446	1
    68	69	0.8008324	0.75382702	0	0	0	0	0	0	1	-360	360;%	1.74094	1
    69	70	0.4843064	0.45587972	0	0	0	0	0	0	1	-360	360;%	1.05284	1
    
];


%%-----  OPF Data  -----%%
%% generator cost data
%   Not finished
%	1	startup	shutdown	n	x1	y1	...	xn	yn
%	2	startup	shutdown	n	c(n-1)	...	c0
mpc.gencost = [
	2	0	0	3	0	20	0;
];


%% convert branch impedances from Ohms to p.u.
[PQ, PV, REF, NONE, BUS_I, BUS_TYPE, PD, QD, GS, BS, BUS_AREA, VM, ...
    VA, BASE_KV, ZONE, VMAX, VMIN, LAM_P, LAM_Q, MU_VMAX, MU_VMIN] = idx_bus;
[F_BUS, T_BUS, BR_R, BR_X, BR_B, RATE_A, RATE_B, RATE_C, ...
    TAP, SHIFT, BR_STATUS, PF, QF, PT, QT, MU_SF, MU_ST, ...
    ANGMIN, ANGMAX, MU_ANGMIN, MU_ANGMAX] = idx_brch;
Vbase = mpc.bus(1, BASE_KV) * 1e3;      %% in Volts
Sbase = mpc.baseMVA * 1e6;              %% in VA
mpc.branch(:, [BR_R BR_X]) = mpc.branch(:, [BR_R BR_X]) / (Vbase^2 / Sbase);

%% convert loads from kW to MW
mpc.bus(:, [PD, QD]) = mpc.bus(:, [PD, QD]) / 1e3;
